@<TRIPOS>MOLECULE
ledgin1.pdb.A
44 46 1 0 0 
SMALL
USER_CHARGES


@<TRIPOS>ATOM
  1 N      -14.2350     3.5270    -2.1530 N.ar  1 Q976   0.0000 
  2 CL     -19.6570     5.1030    -4.0540 Cl    1 Q976   0.0000 
  3 C1     -18.0360     4.6240    -3.4740 C.ar  1 Q976   0.0000 
  4 O1     -11.7240     5.7290    -4.9020 O.co2 1 Q976  -0.5000 
  5 C2     -17.7960     4.3890    -2.1210 C.ar  1 Q976   0.0000 
  6 H2     -18.6067     4.4924    -1.4150 H     1 Q976   0.0000 
  7 O2      -9.9890     4.5140    -5.3800 O.co2 1 Q976  -0.5000 
  8 C3     -16.5310     4.0230    -1.6590 C.ar  1 Q976   0.0000 
  9 H3     -16.3678     3.8492    -0.6057 H     1 Q976   0.0000 
 10 C4     -15.4810     3.8830    -2.5610 C.ar  1 Q976   0.0000 
 11 C5     -15.7640     4.1380    -3.9970 C.ar  1 Q976   0.0000 
 12 C6     -17.0280     4.5000    -4.4170 C.ar  1 Q976   0.0000 
 13 H6     -17.2280     4.6834    -5.4623 H     1 Q976   0.0000 
 14 C7     -13.1880     3.3880    -3.0160 C.ar  1 Q976   0.0000 
 15 C8     -13.3490     3.6140    -4.4740 C.ar  1 Q976   0.0000 
 16 C9     -14.6670     4.0100    -4.9770 C.ar  1 Q976   0.0000 
 17 C10    -14.9140     4.2360    -6.4150 C.ar  1 Q976   0.0000 
 18 C11    -12.2350     3.4740    -5.4340 C.3   1 Q976   0.0000 
 19 H11    -12.5894     3.4952    -6.4645 H     1 Q976   0.0000 
 20 C12    -11.2980     4.6340    -5.2240 C.2   1 Q976   0.0000 
 21 C13    -11.5490     2.1220    -5.2330 C.3   1 Q976   0.0000 
 22 H131   -11.4713     1.9182    -4.1650 H     1 Q976   0.0000 
 23 H132   -10.5507     2.1617    -5.6688 H     1 Q976   0.0000 
 24 C14    -12.3390     0.9960    -5.8990 C.3   1 Q976   0.0000 
 25 H141   -13.3405     0.9660    -5.4699 H     1 Q976   0.0000 
 26 H142   -11.8334     0.0494    -5.7080 H     1 Q976   0.0000 
 27 C15    -12.4530     1.1980    -7.3980 C.3   1 Q976   0.0000 
 28 H151   -12.9577     2.1428    -7.5999 H     1 Q976   0.0000 
 29 H152   -13.0269     0.3794    -7.8323 H     1 Q976   0.0000 
 30 H153   -11.4563     1.2170    -7.8389 H     1 Q976   0.0000 
 31 C16    -11.8350     2.9910    -2.4900 C.3   1 Q976   0.0000 
 32 H161   -11.8882     2.8654    -1.4086 H     1 Q976   0.0000 
 33 H162   -11.1094     3.7681    -2.7303 H     1 Q976   0.0000 
 34 H163   -11.5275     2.0520    -2.9502 H     1 Q976   0.0000 
 35 C17    -14.5720     5.4310    -7.0300 C.ar  1 Q976   0.0000 
 36 H17    -14.1085     6.2260    -6.4647 H     1 Q976   0.0000 
 37 C18    -14.8350     5.5890    -8.3840 C.ar  1 Q976   0.0000 
 38 H18    -14.5703     6.5142    -8.8743 H     1 Q976   0.0000 
 39 C19    -15.4360     4.5690    -9.1180 C.ar  1 Q976   0.0000 
 40 H19    -15.6396     4.7066   -10.1697 H     1 Q976   0.0000 
 41 C20    -15.7730     3.3740    -8.4940 C.ar  1 Q976   0.0000 
 42 H20    -16.2341     2.5769    -9.0582 H     1 Q976   0.0000 
 43 C21    -15.5120     3.2120    -7.1370 C.ar  1 Q976   0.0000 
 44 H21    -15.7752     2.2877    -6.6443 H     1 Q976   0.0000 
@<TRIPOS>BOND
  1   1  10  ar  
  2   1  14  ar  
  3   2   3  1   
  4   3   5  ar  
  5   3  12  ar  
  6   4  20  ar  
  7   5   6  1   
  8   5   8  ar  
  9   7  20  ar  
 10   8   9  1   
 11   8  10  ar  
 12  10  11  ar  
 13  11  12  ar  
 14  11  16  ar  
 15  12  13  1   
 16  14  15  ar  
 17  14  31  1   
 18  15  16  ar  
 19  15  18  1   
 20  16  17  1   
 21  17  35  ar  
 22  17  43  ar  
 23  18  19  1   
 24  18  20  1   
 25  18  21  1   
 26  21  22  1   
 27  21  23  1   
 28  21  24  1   
 29  24  25  1   
 30  24  26  1   
 31  24  27  1   
 32  27  28  1   
 33  27  29  1   
 34  27  30  1   
 35  31  32  1   
 36  31  33  1   
 37  31  34  1   
 38  35  36  1   
 39  35  37  ar  
 40  37  38  1   
 41  37  39  ar  
 42  39  40  1   
 43  39  41  ar  
 44  41  42  1   
 45  41  43  ar  
 46  43  44  1   
@<TRIPOS>SUBSTRUCTURE
  1 Q976  16 GROUP 4 **** **** 0

# MOE 2011.10 (io_trps.svl 2011.10)
